$DATA1 SOURCE='HSPICE' VERSION='K-2015.06-SP1 linux64' PARAM_COUNT=0
.TITLE ' '
 tfall            trise            temper           alter#          
    failed           failed         2.500e+01       1               
