$DATA1 SOURCE='HSPICE' VERSION='K-2015.06-SP1 linux64' PARAM_COUNT=0
.TITLE ' '
 tfall            trise            temper           alter#          
  9.887e-11        6.875e-11        2.500e+01       1               
